/*--------------------------------*- C++ -*----------------------------------*\
| =========                 |                                                 |
| \\      /  F ield         | OpenFOAM: The Open Source CFD Toolbox           |
|  \\    /   O peration     | Version:  3.0.x                                 |
|   \\  /    A nd           | Web:      www.OpenFOAM.org                      |
|    \\/     M anipulation  |                                                 |
\*---------------------------------------------------------------------------*/
FoamFile
{
    version     2.0;
    format      binary;
    class       dictionary;
    object      blockMeshDict;
}
// * * * * * * * * * * * * * * * * * * * * * * * * * * * * * * * * * * * * * //


convertToMeters 0.001;

vertices
(
(0 0 -1)//0
(1.5 0 -1)//1
(22.5 0 -1)//2
(22.5 7 -1)//3
(1.5 7 -1)//4
(0 7 -1)//5
(0 9.5 -1)//6
(1.5 9.5 -1)//7
(45 9.5 -1)//8
(45 309.5 -1)//9
(1.5 309.5 -1)//10
(0 309.5 -1)//11
(0 0 0)//12
(1.5 0 0)//13
(22.5 0 0)//14
(22.5 7 0)//15
(1.5 7 0)//16
(0 7 0)//17
(0 9.5 0)//18
(1.5 9.5 0)//19
(45 9.5 0)//20
(45 309.5 0)//21
(1.5 309.5 0)//22
(0 309.5 0)//23


/*(0 0 0)//0
(22.47858 0.98156 0)//1
(22.47858 -0.98156 0)//2
(22.47858 0.98156 7)//3
(22.47858 -0.98156 7)//4
(0 0 7)//5
(1.49857 0.06544 7)//6
(1.49857 -0.06544 7)//7
(1.49857 0.06544 9.5)//8
(1.49857 -0.06544 9.5)//9
(0 0 9.5)//10
(44.95716 1.96313 9.5)//11
(44.95716 -1.96313 9.5)//12
(44.95716 1.96313 89.5)//13
(44.95716 -1.96313 89.5)//14
(0 0 89.5)//15
(1.49857 0.0644 0)//16
(1.49857 -0.0644 0)//17
(1.49857 0.0644 89.5)//18
(1.49857 -0.0644 89.5)//19*/
);
 
blocks
(
hex (0 1 4 5 12 13 16 17) (15  49 1) simpleGrading (1 0.5 1)
hex (1 2 3 4 13 14 15 16) (80  49 1) simpleGrading (7 0.5 1)
hex (5 4 7 6 17 16 19 18) (15  25 1) simpleGrading (1 1 1)
hex (6 7 10 11 18 19 22 23) (15  600 1) simpleGrading (1 12 1)
hex (7 8 9 10 19 20 21 22) (120  600 1) simpleGrading (7 12 1)

/*hex (0 16 17 0 5 6 7 5) (15  1 35) simpleGrading (1 1 1)
hex (16 1 2 17 6 3 4 7) (42  1 35) simpleGrading (1.12 1 1)
hex (5 6 7 5 10 8 9 10) (15  1 25) simpleGrading (1 1 1)
hex (10 8 9 10 15 18 19 15) (15  1 80) simpleGrading (1 1 1.12)
hex (8 11 12 9 18 13 14 19) (87  1 80) simpleGrading (1.12 1 1.12)*/
);
 
edges
(
);
 
boundary
(
     back
     { 
           type symmetry;
           faces  
           (
               (0 1 4 5)
               (1 2 3 4)
               (5 4 7 6)
               (6 7 10 11)
               (7 8 9 10)
               /*(0 16 6 5)
               (16 1 3 6)
               (5 6 8 10)
               (10 8 18 15)
               (8 11 13 18)*/
           );
      }
     front
     { 
           type symmetry;
           faces  
           (
               (12 13 16 17)
               (13 14 15 16)
               (17 16 19 18)
               (18 19 22 23)
               (19 20 21 22)
               /*(0 17 7 5)
               (17 2 4 7)
               (5 7 9 10)
               (10 9 19 15)
               (9 12 14 19)*/
           );
      }
     cavityRight
     { 
           type wall;
           faces  
           (
               (2 14 15 3)
               /*(1 2 4 3)*/
           );
      }
      DIAPHRAGM
     { 
           type wall;
           faces  
           (
               (0 12 13 1)
               (1 13 14 2)
               /*(0 16 17 0)
               (16 17 2 1)*/
           );
      }
     cavityTop
     { 
           type wall;
           faces  
           (
               (4 16 15 3)
               //(6 3 4 7)
           );
      }
     orificeRight
     { 
           type wall;
           faces  
           (
               (4 16 19 7)
               //(6 7 9 8)
           );
      }
     domainBottom
     { 
           type wall;
           faces  
           (
               (7 19 20 8)
               //(8 11 12 9)
           );
      }
     
     domainRight
     { 
           type patch;
           faces  
           (
               (8 20 21 9)
               //(11 12 14 13)
           );
      }
     domainTop
     { 
           type patch;
           faces  
           (
               (10 22 21 9)
               (11 23 22 10)
               /*(15 18 19 15)
               (18 19 14 13)*/
           );
      }
     /*axis
     { 
           type patch;
           faces  
           (
               (0 5 17 12)
               (5 6 18 17)
               (6 11 23 18)
               /*(0 5 5 0)
               (5 10 10 5)
               (10 15 15 10)
           );
      }*/
);
 
mergePatchPairs
(
);

// ************************************************************************* //
