/*--------------------------------*- C++ -*----------------------------------*\
| =========                 |                                                 |
| \\      /  F ield         | OpenFOAM: The Open Source CFD Toolbox           |
|  \\    /   O peration     | Version:  1.5                                   |
|   \\  /    A nd           | Web:      http://www.OpenFOAM.org               |
|    \\/     M anipulation  |                                                 |
\*---------------------------------------------------------------------------*/
FoamFile
{
    version     2.0;
    format      ascii;
    class       dictionary;
    object      fvSchemes;
}
// * * * * * * * * * * * * * * * * * * * * * * * * * * * * * * * * * * * * * //

ddtSchemes
{
    default Euler;
}

gradSchemes
{
    default         Gauss linear;
    grad(p)         Gauss linear;
}

divSchemes
{
    default         none;
    div(phi,U)      Gauss linear;
    div(phi,T)      Gauss linear;
    div((nuEff*dev2(T(grad(U))))) Gauss linear;
    div((nuEff*dev(T(grad(U))))) Gauss linear;
    div(rho*phi,U)  Gauss vanLeerV;
   // div(phi,k)      Gauss upwind;
   // div(phi,epsilon) Gauss upwind;
}

laplacianSchemes
{
    default         Gauss linear corrected;
    //laplacian(nu,U) Gauss linear corrected;
    //laplacian(rAU,pcorr) Gauss linear corrected;
    ///laplacian(rAU,p) Gauss linear corrected;
    //laplacian(nuEff,U) Gauss linear corrected;
    //laplacian(diffusivity,cellMotionU) Gauss linear uncorrected;
    //laplacian(DepsilonEff,epsilon)  Gauss linear corrected;
    //laplacian(DkEff,k) Gauss linear corrected;
}

interpolationSchemes
{
    default         linear;
    interpolate(HbyA) linear;
}

snGradSchemes
{
    default         corrected;
}

fluxRequired
{
    default         no;
    pcorr;
    p;
}

// ************************************************************************* //
