/*--------------------------------*- C++ -*----------------------------------*\
| =========                 |                                                 |
| \\      /  F ield         | OpenFOAM: The Open Source CFD Toolbox           |
|  \\    /   O peration     | Version:  2.2.0                                 |
|   \\  /    A nd           | Web:      www.OpenFOAM.org                      |
|    \\/     M anipulation  |                                                 |
\*---------------------------------------------------------------------------*/
FoamFile
{
    version     2.0;
    format      ascii;
    class       dictionary;
    object      topoSetDict;
}

// * * * * * * * * * * * * * * * * * * * * * * * * * * * * * * * * * * * * * //

actions
( 	// create a cellSet which contains all cells up to the plane of interest
   {
        // name    inletToPlaneCells;
        name     oriZone0;
        type    cellSet;
        action  new;
        source  cylinderToCell;
        sourceInfo
        {
            p1      (3.01 0 0);
            p2      (3 0 0);
            radius  0.06;
        }
    }
    {
         // name    inletToPlaneCells;
         name     oriZone1;
         type    cellSet;
         action  new;
         source  cylinderToCell;
         sourceInfo
         {
             p1      (4.01 0 0);
             p2      (4 0 0);
             radius  0.06;
         }
     }
    // move all faces (including internal and boundaries) of the cell set to a face set
    /* {
        name    inletToPlaneFaces;
        type    faceSet;
        action  new;
        source  cellToFace;
        sourceInfo
        {
        	set inletToPlaneCells;
            option all;
        }
    }
    // delete all faces not aligned with x (flow direction) up to 45 degrees
    {
        name    inletToPlaneFaces;
        type    faceSet;
        action  delete;
        source  normalToFace;
        sourceInfo
        {
        	normal (1 0 0);
        	cos 0.5;
        }
    }
    {
        name    inletToPlaneFaces;
        type    faceSet;
        action  delete;
        source  normalToFace;
        sourceInfo
        {
        	normal (-1 0 0);
        	cos 0.5;
        }
    }
    {
        name    inletToPlaneFaces;
        type    faceSet;
        action  delete;
        source  normalToFace;
        sourceInfo
        {
        	normal (0 0 1);
        	cos 0.5;
        }
    }
    {
        name    inletToPlaneFaces;
        type    faceSet;
        action  delete;
        source  normalToFace;
        sourceInfo
        {
        	normal (0 0 -1);
        	cos 0.5;
        }
    }
    {
        name    inletToPlaneFaces;
        type    faceSet;
        action  delete;
        source  normalToFace;
        sourceInfo
        {
            normal (0 -1 0);
            cos 0.5;
        }
    }
    // remove the internal faces of the cell set from the face set (note the "both" option)
     {
        name    inletToPlaneFaces;
        type    faceSet;
        action  delete;
        source  cellToFace;
        sourceInfo
        {
        	set inletToPlaneCells;
        	option both;
        }
    }
    // remove the inlet plane faces from the face set
    /*{
        name    inletToPlaneFaces;
        type    faceSet;
        action  delete;
        source  patchToFace;
        sourceInfo
        {
        	name inlet;
        }
    }
    // convert the face set to a face zone
    {
        name    oriZone;
        type    faceZoneSet;
        action  new;
        source  setToFaceZone;
        sourceInfo
        {
            faceSet     inletToPlaneFaces;
        }
    }*/
);

// ************************************************************************* //
