/*--------------------------------*- C++ -*----------------------------------*\
| =========                 |                                                 |
| \\      /  F ield         | OpenFOAM: The Open Source CFD Toolbox           |
|  \\    /   O peration     | Version:  2.1.x                                 |
|   \\  /    A nd           | Web:      www.OpenFOAM.org                      |
|    \\/     M anipulation  |                                                 |
\*---------------------------------------------------------------------------*/
FoamFile
{
    version     2.0;
    format      ascii;
    class       volScalarField;
    object      p;
}
// * * * * * * * * * * * * * * * * * * * * * * * * * * * * * * * * * * * * * //

dimensions      [0 2 -2 0 0 0 0];

internalField   uniform 0;

boundaryField
{

    cavityRight
    {
        type            zeroGradient;
    }
    DIAPHRAGM
    {
        type            zeroGradient;
    }
    cavityTop
    {
        type            zeroGradient;
    }
    orificeRight
    {
        type            zeroGradient;
    }
    domainBottom
    {
        type            zeroGradient;
    }
    domainRight
    {
          type            fixedValue;
          value           uniform  0;
    }
    domainTop
    {
          type            fixedValue;
          value            uniform 0;
    }
    /*axis
    {
        type            empty;
    }*/

  
    back
    {
        type            wedge;
    }
    front
    {
        type            wedge;
    }
    //#includeEtc "caseDicts/setConstraintTypes"

}

// ************************************************************************* //
