/*--------------------------------*- C++ -*----------------------------------*\
| =========                 |                                                 |
| \\      /  F ield         | OpenFOAM: The Open Source CFD Toolbox           |
|  \\    /   O peration     | Version:  2.1.x                                 |
|   \\  /    A nd           | Web:      www.OpenFOAM.org                      |
|    \\/     M anipulation  |                                                 |
\*---------------------------------------------------------------------------*/
FoamFile
{
    version     2.0;
    format      ascii;
    class       volScalarField;
    object      p;
}
// * * * * * * * * * * * * * * * * * * * * * * * * * * * * * * * * * * * * * //

dimensions      [0 2 -2 0 0 0 0];

internalField   uniform 0;

boundaryField
{
    inlet
    {
        type fixedValue;
        value 100;
    }
    outlet
    {
        type fixedValue;
        value 0;
    }
    wall
    {
      type zeroGradient;
    }

    back
    {
        type            wedge;
    }
    front
    {
        type            wedge;
    }
    //#includeEtc "caseDicts/setConstraintTypes"

}

// ************************************************************************* //
