/*---------------------------------------------------------------------------*\
| =========                 |                                                 |
| \\      /  F ield         | OpenFOAM: The Open Source CFD Toolbox           |
|  \\    /   O peration     | Version:  1.5                                   |
|   \\  /    A nd           | Web:      http://www.openfoam.org               |
|    \\/     M anipulation  |                                                 |
\*---------------------------------------------------------------------------*/

FoamFile
{
    version 2.0;
    format ascii;
    class pointVectorField;
    object pointMotionU;
}

// * * * * * * * * * * * * * * * * * * * * * * * * * * * * * * * * * * * * * //

dimensions      [0 1 -1 0 0 0 0];

internalField   uniform (0 0 0);

boundaryField
{

DIAPHRAGM
    {
        type myOscillatingVelocity;
        amplitude  0.00008;
        omega 1570.8; //[rad/sec]
        rc 0.0225;
        value uniform (0 0 0);
        
        /*type myOscillatingVelocity;//libMyPolynomVelocity;
        amplitude  0.003;
        omega 7.85398; //[rad/sec]
        rc 0.0225;
        value uniform (0 0 0);*/
    }
    cavityRight
    {
        type            fixedValue;
        value           uniform (0 0 0);
    }
    cavityTop
    {
        type            fixedValue;
        value           uniform (0 0 0);
    }
    orificeRight
    {
        type            fixedValue;
        value           uniform (0 0 0);
    }
    domainBottom
    {
        type            fixedValue;
        value           uniform (0 0 0);
    }
    domainRight
    {
        type            fixedValue;
        value           uniform (0 0 0);
    }
    domainTop
    {
        type            fixedValue;
        value           uniform (0 0 0);
    }
    back
    {
        type            fixedValue;
        value           uniform (0 0 0);
    }
    back
    {
        type            fixedValue;
        value           uniform (0 0 0);
    }
    front
    {
        type            fixedValue;
        value           uniform (0 0 0);
    }
    /*axis
    {
        type            fixedValue;
        value           uniform (0 0 0);
    }*/
}


// ************************************************************************* //
